[board]
type=System
children=apicbridge bridge cache_hierarchy clk_domain dvfs_handler ethif iobus loadgen memory pc processor workload
auto_unlink_shared_backstore=false
cache_line_size=64
eventq_index=0
exit_on_work_items=true
init_param=0
m5ops_base=4294901760
mem_mode=atomic_noncaching
mem_ranges=0:3221225472 4294967296:18253611008 3221225472:3222274048
memories=board.memory.mem_ctrl0.dram board.memory.mem_ctrl1.dram
mmap_using_noreserve=false
multi_thread=false
num_work_ids=16
readfile=/home/berk/gem5-interrupt-aspen/result/rocksdb//base/100000000us/0.080/try_1/readfile
redirect_paths=
shadow_rom_ranges=
shared_backstore=
symbolfile=
thermal_components=
thermal_model=Null
work_begin_ckpt_count=0
work_begin_cpu_id_exit=-1
work_begin_exit_count=0
work_cpus_ckpt_count=0
work_end_ckpt_count=0
work_end_exit_count=0
work_item_id=-1
workload=board.workload
system_port=board.cache_hierarchy.membus.cpu_side_ports[1]

[board.apicbridge]
type=Bridge
children=power_state
clk_domain=board.clk_domain
delay=50000
eventq_index=0
power_model=
power_state=board.apicbridge.power_state
ranges=11529215046068469760:11529215046068486143
req_size=16
resp_size=16
cpu_side_port=board.iobus.mem_side_ports[0]
mem_side_port=board.cache_hierarchy.membus.cpu_side_ports[0]

[board.apicbridge.power_state]
type=PowerState
clk_gate_bins=20
clk_gate_max=1000000000000
clk_gate_min=1000
default_state=UNDEFINED
eventq_index=0
leaders=
possible_states=

[board.bridge]
type=Bridge
children=power_state
clk_domain=board.clk_domain
delay=50000
eventq_index=0
power_model=
power_state=board.bridge.power_state
ranges=3221225472:4294901760 9223372036854775808:11529215046068469759 13835058055282163712:18446744073709551615
req_size=16
resp_size=16
cpu_side_port=board.cache_hierarchy.membus.mem_side_ports[0]
mem_side_port=board.iobus.cpu_side_ports[0]

[board.bridge.power_state]
type=PowerState
clk_gate_bins=20
clk_gate_max=1000000000000
clk_gate_min=1000
default_state=UNDEFINED
eventq_index=0
leaders=
possible_states=

[board.cache_hierarchy]
type=SubSystem
children=dptw_caches0 dptw_caches1 dptw_caches2 dptw_caches3 iocache iptw_caches0 iptw_caches1 iptw_caches2 iptw_caches3 l1dcaches0 l1dcaches1 l1dcaches2 l1dcaches3 l1icaches0 l1icaches1 l1icaches2 l1icaches3 l2buses0 l2buses1 l2buses2 l2buses3 l2caches0 l2caches1 l2caches2 l2caches3 membus
eventq_index=0
thermal_domain=Null

[board.cache_hierarchy.dptw_caches0]
type=Cache
children=power_state replacement_policy tags
addr_ranges=0:18446744073709551615
assoc=4
clk_domain=board.clk_domain
clusivity=mostly_incl
compressor=Null
data_latency=1
ddio_disabled=false
ddio_enabled=true
ddio_way_part=-1
demand_mshr_reserve=1
eventq_index=0
is_iocache=false
is_llc=false
is_mlc=false
is_read_only=false
max_miss_count=0
mlc_ddio=false
mlc_idx=-1
move_contractions=true
mshrs=20
power_model=
power_state=board.cache_hierarchy.dptw_caches0.power_state
prefetch_on_access=false
prefetch_on_pf_hit=false
prefetcher=Null
replace_expansions=true
replacement_policy=board.cache_hierarchy.dptw_caches0.replacement_policy
response_latency=1
send_header_only=false
sequential_access=false
size=8192
system=board
tag_latency=1
tags=board.cache_hierarchy.dptw_caches0.tags
tgts_per_mshr=12
warmup_percentage=0
write_allocator=Null
write_buffers=8
writeback_clean=true
cpu_side=board.processor.start0.core.mmu.dtb.walker.port
mem_side=board.cache_hierarchy.l2buses0.cpu_side_ports[3]

[board.cache_hierarchy.dptw_caches0.power_state]
type=PowerState
clk_gate_bins=20
clk_gate_max=1000000000000
clk_gate_min=1000
default_state=UNDEFINED
eventq_index=0
leaders=
possible_states=

[board.cache_hierarchy.dptw_caches0.replacement_policy]
type=LRURP
eventq_index=0

[board.cache_hierarchy.dptw_caches0.tags]
type=BaseSetAssoc
children=indexing_policy power_state
assoc=4
block_size=64
clk_domain=board.clk_domain
entry_size=64
eventq_index=0
indexing_policy=board.cache_hierarchy.dptw_caches0.tags.indexing_policy
power_model=
power_state=board.cache_hierarchy.dptw_caches0.tags.power_state
replacement_policy=board.cache_hierarchy.dptw_caches0.replacement_policy
sequential_access=false
size=8192
system=board
tag_latency=1
warmup_percentage=0

[board.cache_hierarchy.dptw_caches0.tags.indexing_policy]
type=SetAssociative
assoc=4
entry_size=64
eventq_index=0
size=8192

[board.cache_hierarchy.dptw_caches0.tags.power_state]
type=PowerState
clk_gate_bins=20
clk_gate_max=1000000000000
clk_gate_min=1000
default_state=UNDEFINED
eventq_index=0
leaders=
possible_states=

[board.cache_hierarchy.dptw_caches1]
type=Cache
children=power_state replacement_policy tags
addr_ranges=0:18446744073709551615
assoc=4
clk_domain=board.clk_domain
clusivity=mostly_incl
compressor=Null
data_latency=1
ddio_disabled=false
ddio_enabled=true
ddio_way_part=-1
demand_mshr_reserve=1
eventq_index=0
is_iocache=false
is_llc=false
is_mlc=false
is_read_only=false
max_miss_count=0
mlc_ddio=false
mlc_idx=-1
move_contractions=true
mshrs=20
power_model=
power_state=board.cache_hierarchy.dptw_caches1.power_state
prefetch_on_access=false
prefetch_on_pf_hit=false
prefetcher=Null
replace_expansions=true
replacement_policy=board.cache_hierarchy.dptw_caches1.replacement_policy
response_latency=1
send_header_only=false
sequential_access=false
size=8192
system=board
tag_latency=1
tags=board.cache_hierarchy.dptw_caches1.tags
tgts_per_mshr=12
warmup_percentage=0
write_allocator=Null
write_buffers=8
writeback_clean=true
cpu_side=board.processor.start1.core.mmu.dtb.walker.port
mem_side=board.cache_hierarchy.l2buses1.cpu_side_ports[3]

[board.cache_hierarchy.dptw_caches1.power_state]
type=PowerState
clk_gate_bins=20
clk_gate_max=1000000000000
clk_gate_min=1000
default_state=UNDEFINED
eventq_index=0
leaders=
possible_states=

[board.cache_hierarchy.dptw_caches1.replacement_policy]
type=LRURP
eventq_index=0

[board.cache_hierarchy.dptw_caches1.tags]
type=BaseSetAssoc
children=indexing_policy power_state
assoc=4
block_size=64
clk_domain=board.clk_domain
entry_size=64
eventq_index=0
indexing_policy=board.cache_hierarchy.dptw_caches1.tags.indexing_policy
power_model=
power_state=board.cache_hierarchy.dptw_caches1.tags.power_state
replacement_policy=board.cache_hierarchy.dptw_caches1.replacement_policy
sequential_access=false
size=8192
system=board
tag_latency=1
warmup_percentage=0

[board.cache_hierarchy.dptw_caches1.tags.indexing_policy]
type=SetAssociative
assoc=4
entry_size=64
eventq_index=0
size=8192

[board.cache_hierarchy.dptw_caches1.tags.power_state]
type=PowerState
clk_gate_bins=20
clk_gate_max=1000000000000
clk_gate_min=1000
default_state=UNDEFINED
eventq_index=0
leaders=
possible_states=

[board.cache_hierarchy.dptw_caches2]
type=Cache
children=power_state replacement_policy tags
addr_ranges=0:18446744073709551615
assoc=4
clk_domain=board.clk_domain
clusivity=mostly_incl
compressor=Null
data_latency=1
ddio_disabled=false
ddio_enabled=true
ddio_way_part=-1
demand_mshr_reserve=1
eventq_index=0
is_iocache=false
is_llc=false
is_mlc=false
is_read_only=false
max_miss_count=0
mlc_ddio=false
mlc_idx=-1
move_contractions=true
mshrs=20
power_model=
power_state=board.cache_hierarchy.dptw_caches2.power_state
prefetch_on_access=false
prefetch_on_pf_hit=false
prefetcher=Null
replace_expansions=true
replacement_policy=board.cache_hierarchy.dptw_caches2.replacement_policy
response_latency=1
send_header_only=false
sequential_access=false
size=8192
system=board
tag_latency=1
tags=board.cache_hierarchy.dptw_caches2.tags
tgts_per_mshr=12
warmup_percentage=0
write_allocator=Null
write_buffers=8
writeback_clean=true
cpu_side=board.processor.start2.core.mmu.dtb.walker.port
mem_side=board.cache_hierarchy.l2buses2.cpu_side_ports[3]

[board.cache_hierarchy.dptw_caches2.power_state]
type=PowerState
clk_gate_bins=20
clk_gate_max=1000000000000
clk_gate_min=1000
default_state=UNDEFINED
eventq_index=0
leaders=
possible_states=

[board.cache_hierarchy.dptw_caches2.replacement_policy]
type=LRURP
eventq_index=0

[board.cache_hierarchy.dptw_caches2.tags]
type=BaseSetAssoc
children=indexing_policy power_state
assoc=4
block_size=64
clk_domain=board.clk_domain
entry_size=64
eventq_index=0
indexing_policy=board.cache_hierarchy.dptw_caches2.tags.indexing_policy
power_model=
power_state=board.cache_hierarchy.dptw_caches2.tags.power_state
replacement_policy=board.cache_hierarchy.dptw_caches2.replacement_policy
sequential_access=false
size=8192
system=board
tag_latency=1
warmup_percentage=0

[board.cache_hierarchy.dptw_caches2.tags.indexing_policy]
type=SetAssociative
assoc=4
entry_size=64
eventq_index=0
size=8192

[board.cache_hierarchy.dptw_caches2.tags.power_state]
type=PowerState
clk_gate_bins=20
clk_gate_max=1000000000000
clk_gate_min=1000
default_state=UNDEFINED
eventq_index=0
leaders=
possible_states=

[board.cache_hierarchy.dptw_caches3]
type=Cache
children=power_state replacement_policy tags
addr_ranges=0:18446744073709551615
assoc=4
clk_domain=board.clk_domain
clusivity=mostly_incl
compressor=Null
data_latency=1
ddio_disabled=false
ddio_enabled=true
ddio_way_part=-1
demand_mshr_reserve=1
eventq_index=0
is_iocache=false
is_llc=false
is_mlc=false
is_read_only=false
max_miss_count=0
mlc_ddio=false
mlc_idx=-1
move_contractions=true
mshrs=20
power_model=
power_state=board.cache_hierarchy.dptw_caches3.power_state
prefetch_on_access=false
prefetch_on_pf_hit=false
prefetcher=Null
replace_expansions=true
replacement_policy=board.cache_hierarchy.dptw_caches3.replacement_policy
response_latency=1
send_header_only=false
sequential_access=false
size=8192
system=board
tag_latency=1
tags=board.cache_hierarchy.dptw_caches3.tags
tgts_per_mshr=12
warmup_percentage=0
write_allocator=Null
write_buffers=8
writeback_clean=true
cpu_side=board.processor.start3.core.mmu.dtb.walker.port
mem_side=board.cache_hierarchy.l2buses3.cpu_side_ports[3]

[board.cache_hierarchy.dptw_caches3.power_state]
type=PowerState
clk_gate_bins=20
clk_gate_max=1000000000000
clk_gate_min=1000
default_state=UNDEFINED
eventq_index=0
leaders=
possible_states=

[board.cache_hierarchy.dptw_caches3.replacement_policy]
type=LRURP
eventq_index=0

[board.cache_hierarchy.dptw_caches3.tags]
type=BaseSetAssoc
children=indexing_policy power_state
assoc=4
block_size=64
clk_domain=board.clk_domain
entry_size=64
eventq_index=0
indexing_policy=board.cache_hierarchy.dptw_caches3.tags.indexing_policy
power_model=
power_state=board.cache_hierarchy.dptw_caches3.tags.power_state
replacement_policy=board.cache_hierarchy.dptw_caches3.replacement_policy
sequential_access=false
size=8192
system=board
tag_latency=1
warmup_percentage=0

[board.cache_hierarchy.dptw_caches3.tags.indexing_policy]
type=SetAssociative
assoc=4
entry_size=64
eventq_index=0
size=8192

[board.cache_hierarchy.dptw_caches3.tags.power_state]
type=PowerState
clk_gate_bins=20
clk_gate_max=1000000000000
clk_gate_min=1000
default_state=UNDEFINED
eventq_index=0
leaders=
possible_states=

[board.cache_hierarchy.iocache]
type=Cache
children=power_state replacement_policy tags
addr_ranges=0:3221225472 4294967296:18253611008
assoc=8
clk_domain=board.clk_domain
clusivity=mostly_incl
compressor=Null
data_latency=1
ddio_disabled=false
ddio_enabled=true
ddio_way_part=-1
demand_mshr_reserve=1
eventq_index=0
is_iocache=true
is_llc=false
is_mlc=false
is_read_only=false
max_miss_count=0
mlc_ddio=false
mlc_idx=-1
move_contractions=true
mshrs=500
power_model=
power_state=board.cache_hierarchy.iocache.power_state
prefetch_on_access=false
prefetch_on_pf_hit=false
prefetcher=Null
replace_expansions=true
replacement_policy=board.cache_hierarchy.iocache.replacement_policy
response_latency=1
send_header_only=false
sequential_access=false
size=1024
system=board
tag_latency=1
tags=board.cache_hierarchy.iocache.tags
tgts_per_mshr=500
warmup_percentage=0
write_allocator=Null
write_buffers=8
writeback_clean=false
cpu_side=board.iobus.mem_side_ports[18]
mem_side=board.cache_hierarchy.membus.cpu_side_ports[2]

[board.cache_hierarchy.iocache.power_state]
type=PowerState
clk_gate_bins=20
clk_gate_max=1000000000000
clk_gate_min=1000
default_state=UNDEFINED
eventq_index=0
leaders=
possible_states=

[board.cache_hierarchy.iocache.replacement_policy]
type=LRURP
eventq_index=0

[board.cache_hierarchy.iocache.tags]
type=BaseSetAssoc
children=indexing_policy power_state
assoc=8
block_size=64
clk_domain=board.clk_domain
entry_size=64
eventq_index=0
indexing_policy=board.cache_hierarchy.iocache.tags.indexing_policy
power_model=
power_state=board.cache_hierarchy.iocache.tags.power_state
replacement_policy=board.cache_hierarchy.iocache.replacement_policy
sequential_access=false
size=1024
system=board
tag_latency=1
warmup_percentage=0

[board.cache_hierarchy.iocache.tags.indexing_policy]
type=SetAssociative
assoc=8
entry_size=64
eventq_index=0
size=1024

[board.cache_hierarchy.iocache.tags.power_state]
type=PowerState
clk_gate_bins=20
clk_gate_max=1000000000000
clk_gate_min=1000
default_state=UNDEFINED
eventq_index=0
leaders=
possible_states=

[board.cache_hierarchy.iptw_caches0]
type=Cache
children=power_state replacement_policy tags
addr_ranges=0:18446744073709551615
assoc=4
clk_domain=board.clk_domain
clusivity=mostly_incl
compressor=Null
data_latency=1
ddio_disabled=false
ddio_enabled=true
ddio_way_part=-1
demand_mshr_reserve=1
eventq_index=0
is_iocache=false
is_llc=false
is_mlc=false
is_read_only=false
max_miss_count=0
mlc_ddio=false
mlc_idx=-1
move_contractions=true
mshrs=20
power_model=
power_state=board.cache_hierarchy.iptw_caches0.power_state
prefetch_on_access=false
prefetch_on_pf_hit=false
prefetcher=Null
replace_expansions=true
replacement_policy=board.cache_hierarchy.iptw_caches0.replacement_policy
response_latency=1
send_header_only=false
sequential_access=false
size=8192
system=board
tag_latency=1
tags=board.cache_hierarchy.iptw_caches0.tags
tgts_per_mshr=12
warmup_percentage=0
write_allocator=Null
write_buffers=8
writeback_clean=true
cpu_side=board.processor.start0.core.mmu.itb.walker.port
mem_side=board.cache_hierarchy.l2buses0.cpu_side_ports[2]

[board.cache_hierarchy.iptw_caches0.power_state]
type=PowerState
clk_gate_bins=20
clk_gate_max=1000000000000
clk_gate_min=1000
default_state=UNDEFINED
eventq_index=0
leaders=
possible_states=

[board.cache_hierarchy.iptw_caches0.replacement_policy]
type=LRURP
eventq_index=0

[board.cache_hierarchy.iptw_caches0.tags]
type=BaseSetAssoc
children=indexing_policy power_state
assoc=4
block_size=64
clk_domain=board.clk_domain
entry_size=64
eventq_index=0
indexing_policy=board.cache_hierarchy.iptw_caches0.tags.indexing_policy
power_model=
power_state=board.cache_hierarchy.iptw_caches0.tags.power_state
replacement_policy=board.cache_hierarchy.iptw_caches0.replacement_policy
sequential_access=false
size=8192
system=board
tag_latency=1
warmup_percentage=0

[board.cache_hierarchy.iptw_caches0.tags.indexing_policy]
type=SetAssociative
assoc=4
entry_size=64
eventq_index=0
size=8192

[board.cache_hierarchy.iptw_caches0.tags.power_state]
type=PowerState
clk_gate_bins=20
clk_gate_max=1000000000000
clk_gate_min=1000
default_state=UNDEFINED
eventq_index=0
leaders=
possible_states=

[board.cache_hierarchy.iptw_caches1]
type=Cache
children=power_state replacement_policy tags
addr_ranges=0:18446744073709551615
assoc=4
clk_domain=board.clk_domain
clusivity=mostly_incl
compressor=Null
data_latency=1
ddio_disabled=false
ddio_enabled=true
ddio_way_part=-1
demand_mshr_reserve=1
eventq_index=0
is_iocache=false
is_llc=false
is_mlc=false
is_read_only=false
max_miss_count=0
mlc_ddio=false
mlc_idx=-1
move_contractions=true
mshrs=20
power_model=
power_state=board.cache_hierarchy.iptw_caches1.power_state
prefetch_on_access=false
prefetch_on_pf_hit=false
prefetcher=Null
replace_expansions=true
replacement_policy=board.cache_hierarchy.iptw_caches1.replacement_policy
response_latency=1
send_header_only=false
sequential_access=false
size=8192
system=board
tag_latency=1
tags=board.cache_hierarchy.iptw_caches1.tags
tgts_per_mshr=12
warmup_percentage=0
write_allocator=Null
write_buffers=8
writeback_clean=true
cpu_side=board.processor.start1.core.mmu.itb.walker.port
mem_side=board.cache_hierarchy.l2buses1.cpu_side_ports[2]

[board.cache_hierarchy.iptw_caches1.power_state]
type=PowerState
clk_gate_bins=20
clk_gate_max=1000000000000
clk_gate_min=1000
default_state=UNDEFINED
eventq_index=0
leaders=
possible_states=

[board.cache_hierarchy.iptw_caches1.replacement_policy]
type=LRURP
eventq_index=0

[board.cache_hierarchy.iptw_caches1.tags]
type=BaseSetAssoc
children=indexing_policy power_state
assoc=4
block_size=64
clk_domain=board.clk_domain
entry_size=64
eventq_index=0
indexing_policy=board.cache_hierarchy.iptw_caches1.tags.indexing_policy
power_model=
power_state=board.cache_hierarchy.iptw_caches1.tags.power_state
replacement_policy=board.cache_hierarchy.iptw_caches1.replacement_policy
sequential_access=false
size=8192
system=board
tag_latency=1
warmup_percentage=0

[board.cache_hierarchy.iptw_caches1.tags.indexing_policy]
type=SetAssociative
assoc=4
entry_size=64
eventq_index=0
size=8192

[board.cache_hierarchy.iptw_caches1.tags.power_state]
type=PowerState
clk_gate_bins=20
clk_gate_max=1000000000000
clk_gate_min=1000
default_state=UNDEFINED
eventq_index=0
leaders=
possible_states=

[board.cache_hierarchy.iptw_caches2]
type=Cache
children=power_state replacement_policy tags
addr_ranges=0:18446744073709551615
assoc=4
clk_domain=board.clk_domain
clusivity=mostly_incl
compressor=Null
data_latency=1
ddio_disabled=false
ddio_enabled=true
ddio_way_part=-1
demand_mshr_reserve=1
eventq_index=0
is_iocache=false
is_llc=false
is_mlc=false
is_read_only=false
max_miss_count=0
mlc_ddio=false
mlc_idx=-1
move_contractions=true
mshrs=20
power_model=
power_state=board.cache_hierarchy.iptw_caches2.power_state
prefetch_on_access=false
prefetch_on_pf_hit=false
prefetcher=Null
replace_expansions=true
replacement_policy=board.cache_hierarchy.iptw_caches2.replacement_policy
response_latency=1
send_header_only=false
sequential_access=false
size=8192
system=board
tag_latency=1
tags=board.cache_hierarchy.iptw_caches2.tags
tgts_per_mshr=12
warmup_percentage=0
write_allocator=Null
write_buffers=8
writeback_clean=true
cpu_side=board.processor.start2.core.mmu.itb.walker.port
mem_side=board.cache_hierarchy.l2buses2.cpu_side_ports[2]

[board.cache_hierarchy.iptw_caches2.power_state]
type=PowerState
clk_gate_bins=20
clk_gate_max=1000000000000
clk_gate_min=1000
default_state=UNDEFINED
eventq_index=0
leaders=
possible_states=

[board.cache_hierarchy.iptw_caches2.replacement_policy]
type=LRURP
eventq_index=0

[board.cache_hierarchy.iptw_caches2.tags]
type=BaseSetAssoc
children=indexing_policy power_state
assoc=4
block_size=64
clk_domain=board.clk_domain
entry_size=64
eventq_index=0
indexing_policy=board.cache_hierarchy.iptw_caches2.tags.indexing_policy
power_model=
power_state=board.cache_hierarchy.iptw_caches2.tags.power_state
replacement_policy=board.cache_hierarchy.iptw_caches2.replacement_policy
sequential_access=false
size=8192
system=board
tag_latency=1
warmup_percentage=0

[board.cache_hierarchy.iptw_caches2.tags.indexing_policy]
type=SetAssociative
assoc=4
entry_size=64
eventq_index=0
size=8192

[board.cache_hierarchy.iptw_caches2.tags.power_state]
type=PowerState
clk_gate_bins=20
clk_gate_max=1000000000000
clk_gate_min=1000
default_state=UNDEFINED
eventq_index=0
leaders=
possible_states=

[board.cache_hierarchy.iptw_caches3]
type=Cache
children=power_state replacement_policy tags
addr_ranges=0:18446744073709551615
assoc=4
clk_domain=board.clk_domain
clusivity=mostly_incl
compressor=Null
data_latency=1
ddio_disabled=false
ddio_enabled=true
ddio_way_part=-1
demand_mshr_reserve=1
eventq_index=0
is_iocache=false
is_llc=false
is_mlc=false
is_read_only=false
max_miss_count=0
mlc_ddio=false
mlc_idx=-1
move_contractions=true
mshrs=20
power_model=
power_state=board.cache_hierarchy.iptw_caches3.power_state
prefetch_on_access=false
prefetch_on_pf_hit=false
prefetcher=Null
replace_expansions=true
replacement_policy=board.cache_hierarchy.iptw_caches3.replacement_policy
response_latency=1
send_header_only=false
sequential_access=false
size=8192
system=board
tag_latency=1
tags=board.cache_hierarchy.iptw_caches3.tags
tgts_per_mshr=12
warmup_percentage=0
write_allocator=Null
write_buffers=8
writeback_clean=true
cpu_side=board.processor.start3.core.mmu.itb.walker.port
mem_side=board.cache_hierarchy.l2buses3.cpu_side_ports[2]

[board.cache_hierarchy.iptw_caches3.power_state]
type=PowerState
clk_gate_bins=20
clk_gate_max=1000000000000
clk_gate_min=1000
default_state=UNDEFINED
eventq_index=0
leaders=
possible_states=

[board.cache_hierarchy.iptw_caches3.replacement_policy]
type=LRURP
eventq_index=0

[board.cache_hierarchy.iptw_caches3.tags]
type=BaseSetAssoc
children=indexing_policy power_state
assoc=4
block_size=64
clk_domain=board.clk_domain
entry_size=64
eventq_index=0
indexing_policy=board.cache_hierarchy.iptw_caches3.tags.indexing_policy
power_model=
power_state=board.cache_hierarchy.iptw_caches3.tags.power_state
replacement_policy=board.cache_hierarchy.iptw_caches3.replacement_policy
sequential_access=false
size=8192
system=board
tag_latency=1
warmup_percentage=0

[board.cache_hierarchy.iptw_caches3.tags.indexing_policy]
type=SetAssociative
assoc=4
entry_size=64
eventq_index=0
size=8192

[board.cache_hierarchy.iptw_caches3.tags.power_state]
type=PowerState
clk_gate_bins=20
clk_gate_max=1000000000000
clk_gate_min=1000
default_state=UNDEFINED
eventq_index=0
leaders=
possible_states=

[board.cache_hierarchy.l1dcaches0]
type=Cache
children=power_state prefetcher replacement_policy tags
addr_ranges=0:18446744073709551615
assoc=8
clk_domain=board.clk_domain
clusivity=mostly_incl
compressor=Null
data_latency=1
ddio_disabled=false
ddio_enabled=true
ddio_way_part=-1
demand_mshr_reserve=1
eventq_index=0
is_iocache=false
is_llc=false
is_mlc=false
is_read_only=false
max_miss_count=0
mlc_ddio=false
mlc_idx=-1
move_contractions=true
mshrs=16
power_model=
power_state=board.cache_hierarchy.l1dcaches0.power_state
prefetch_on_access=false
prefetch_on_pf_hit=false
prefetcher=board.cache_hierarchy.l1dcaches0.prefetcher
replace_expansions=true
replacement_policy=board.cache_hierarchy.l1dcaches0.replacement_policy
response_latency=1
send_header_only=false
sequential_access=false
size=32768
system=board
tag_latency=1
tags=board.cache_hierarchy.l1dcaches0.tags
tgts_per_mshr=20
warmup_percentage=0
write_allocator=Null
write_buffers=8
writeback_clean=false
cpu_side=board.processor.start0.core.dcache_port
mem_side=board.cache_hierarchy.l2buses0.cpu_side_ports[1]

[board.cache_hierarchy.l1dcaches0.power_state]
type=PowerState
clk_gate_bins=20
clk_gate_max=1000000000000
clk_gate_min=1000
default_state=UNDEFINED
eventq_index=0
leaders=
possible_states=

[board.cache_hierarchy.l1dcaches0.prefetcher]
type=StridePrefetcher
children=power_state table_indexing_policy table_replacement_policy
block_size=64
cache_snoop=false
clk_domain=board.clk_domain
confidence_counter_bits=3
confidence_threshold=50
degree=4
eventq_index=0
initial_confidence=4
is_ddio_prefetcher=false
latency=1
max_prefetch_requests_with_pending_translation=32
on_data=true
on_inst=false
on_miss=false
on_read=true
on_write=true
page_bytes=4096
power_model=
power_state=board.cache_hierarchy.l1dcaches0.prefetcher.power_state
prefetch_on_access=false
prefetch_on_pf_hit=false
queue_filter=true
queue_size=32
queue_squash=true
sys=board
table_assoc=4
table_entries=64
table_indexing_policy=board.cache_hierarchy.l1dcaches0.prefetcher.table_indexing_policy
table_replacement_policy=board.cache_hierarchy.l1dcaches0.prefetcher.table_replacement_policy
tag_prefetch=true
throttle_control_percentage=0
use_requestor_id=true
use_virtual_addresses=false

[board.cache_hierarchy.l1dcaches0.prefetcher.power_state]
type=PowerState
clk_gate_bins=20
clk_gate_max=1000000000000
clk_gate_min=1000
default_state=UNDEFINED
eventq_index=0
leaders=
possible_states=

[board.cache_hierarchy.l1dcaches0.prefetcher.table_indexing_policy]
type=StridePrefetcherHashedSetAssociative
assoc=4
entry_size=1
eventq_index=0
size=64

[board.cache_hierarchy.l1dcaches0.prefetcher.table_replacement_policy]
type=RandomRP
eventq_index=0

[board.cache_hierarchy.l1dcaches0.replacement_policy]
type=LRURP
eventq_index=0

[board.cache_hierarchy.l1dcaches0.tags]
type=BaseSetAssoc
children=indexing_policy power_state
assoc=8
block_size=64
clk_domain=board.clk_domain
entry_size=64
eventq_index=0
indexing_policy=board.cache_hierarchy.l1dcaches0.tags.indexing_policy
power_model=
power_state=board.cache_hierarchy.l1dcaches0.tags.power_state
replacement_policy=board.cache_hierarchy.l1dcaches0.replacement_policy
sequential_access=false
size=32768
system=board
tag_latency=1
warmup_percentage=0

[board.cache_hierarchy.l1dcaches0.tags.indexing_policy]
type=SetAssociative
assoc=8
entry_size=64
eventq_index=0
size=32768

[board.cache_hierarchy.l1dcaches0.tags.power_state]
type=PowerState
clk_gate_bins=20
clk_gate_max=1000000000000
clk_gate_min=1000
default_state=UNDEFINED
eventq_index=0
leaders=
possible_states=

[board.cache_hierarchy.l1dcaches1]
type=Cache
children=power_state prefetcher replacement_policy tags
addr_ranges=0:18446744073709551615
assoc=8
clk_domain=board.clk_domain
clusivity=mostly_incl
compressor=Null
data_latency=1
ddio_disabled=false
ddio_enabled=true
ddio_way_part=-1
demand_mshr_reserve=1
eventq_index=0
is_iocache=false
is_llc=false
is_mlc=false
is_read_only=false
max_miss_count=0
mlc_ddio=false
mlc_idx=-1
move_contractions=true
mshrs=16
power_model=
power_state=board.cache_hierarchy.l1dcaches1.power_state
prefetch_on_access=false
prefetch_on_pf_hit=false
prefetcher=board.cache_hierarchy.l1dcaches1.prefetcher
replace_expansions=true
replacement_policy=board.cache_hierarchy.l1dcaches1.replacement_policy
response_latency=1
send_header_only=false
sequential_access=false
size=32768
system=board
tag_latency=1
tags=board.cache_hierarchy.l1dcaches1.tags
tgts_per_mshr=20
warmup_percentage=0
write_allocator=Null
write_buffers=8
writeback_clean=false
cpu_side=board.processor.start1.core.dcache_port
mem_side=board.cache_hierarchy.l2buses1.cpu_side_ports[1]

[board.cache_hierarchy.l1dcaches1.power_state]
type=PowerState
clk_gate_bins=20
clk_gate_max=1000000000000
clk_gate_min=1000
default_state=UNDEFINED
eventq_index=0
leaders=
possible_states=

[board.cache_hierarchy.l1dcaches1.prefetcher]
type=StridePrefetcher
children=power_state table_indexing_policy table_replacement_policy
block_size=64
cache_snoop=false
clk_domain=board.clk_domain
confidence_counter_bits=3
confidence_threshold=50
degree=4
eventq_index=0
initial_confidence=4
is_ddio_prefetcher=false
latency=1
max_prefetch_requests_with_pending_translation=32
on_data=true
on_inst=false
on_miss=false
on_read=true
on_write=true
page_bytes=4096
power_model=
power_state=board.cache_hierarchy.l1dcaches1.prefetcher.power_state
prefetch_on_access=false
prefetch_on_pf_hit=false
queue_filter=true
queue_size=32
queue_squash=true
sys=board
table_assoc=4
table_entries=64
table_indexing_policy=board.cache_hierarchy.l1dcaches1.prefetcher.table_indexing_policy
table_replacement_policy=board.cache_hierarchy.l1dcaches1.prefetcher.table_replacement_policy
tag_prefetch=true
throttle_control_percentage=0
use_requestor_id=true
use_virtual_addresses=false

[board.cache_hierarchy.l1dcaches1.prefetcher.power_state]
type=PowerState
clk_gate_bins=20
clk_gate_max=1000000000000
clk_gate_min=1000
default_state=UNDEFINED
eventq_index=0
leaders=
possible_states=

[board.cache_hierarchy.l1dcaches1.prefetcher.table_indexing_policy]
type=StridePrefetcherHashedSetAssociative
assoc=4
entry_size=1
eventq_index=0
size=64

[board.cache_hierarchy.l1dcaches1.prefetcher.table_replacement_policy]
type=RandomRP
eventq_index=0

[board.cache_hierarchy.l1dcaches1.replacement_policy]
type=LRURP
eventq_index=0

[board.cache_hierarchy.l1dcaches1.tags]
type=BaseSetAssoc
children=indexing_policy power_state
assoc=8
block_size=64
clk_domain=board.clk_domain
entry_size=64
eventq_index=0
indexing_policy=board.cache_hierarchy.l1dcaches1.tags.indexing_policy
power_model=
power_state=board.cache_hierarchy.l1dcaches1.tags.power_state
replacement_policy=board.cache_hierarchy.l1dcaches1.replacement_policy
sequential_access=false
size=32768
system=board
tag_latency=1
warmup_percentage=0

[board.cache_hierarchy.l1dcaches1.tags.indexing_policy]
type=SetAssociative
assoc=8
entry_size=64
eventq_index=0
size=32768

[board.cache_hierarchy.l1dcaches1.tags.power_state]
type=PowerState
clk_gate_bins=20
clk_gate_max=1000000000000
clk_gate_min=1000
default_state=UNDEFINED
eventq_index=0
leaders=
possible_states=

[board.cache_hierarchy.l1dcaches2]
type=Cache
children=power_state prefetcher replacement_policy tags
addr_ranges=0:18446744073709551615
assoc=8
clk_domain=board.clk_domain
clusivity=mostly_incl
compressor=Null
data_latency=1
ddio_disabled=false
ddio_enabled=true
ddio_way_part=-1
demand_mshr_reserve=1
eventq_index=0
is_iocache=false
is_llc=false
is_mlc=false
is_read_only=false
max_miss_count=0
mlc_ddio=false
mlc_idx=-1
move_contractions=true
mshrs=16
power_model=
power_state=board.cache_hierarchy.l1dcaches2.power_state
prefetch_on_access=false
prefetch_on_pf_hit=false
prefetcher=board.cache_hierarchy.l1dcaches2.prefetcher
replace_expansions=true
replacement_policy=board.cache_hierarchy.l1dcaches2.replacement_policy
response_latency=1
send_header_only=false
sequential_access=false
size=32768
system=board
tag_latency=1
tags=board.cache_hierarchy.l1dcaches2.tags
tgts_per_mshr=20
warmup_percentage=0
write_allocator=Null
write_buffers=8
writeback_clean=false
cpu_side=board.processor.start2.core.dcache_port
mem_side=board.cache_hierarchy.l2buses2.cpu_side_ports[1]

[board.cache_hierarchy.l1dcaches2.power_state]
type=PowerState
clk_gate_bins=20
clk_gate_max=1000000000000
clk_gate_min=1000
default_state=UNDEFINED
eventq_index=0
leaders=
possible_states=

[board.cache_hierarchy.l1dcaches2.prefetcher]
type=StridePrefetcher
children=power_state table_indexing_policy table_replacement_policy
block_size=64
cache_snoop=false
clk_domain=board.clk_domain